/*--------------------------------*- C++ -*----------------------------------*\
| =========                 |                                                 |
| \\      /  F ield         | OpenFOAM: The Open Source CFD Toolbox           |
|  \\    /   O peration     | Version:  2.1.x                                 |
|   \\  /    A nd           | Web:      www.OpenFOAM.org                      |
|    \\/     M anipulation  |                                                 |
\*---------------------------------------------------------------------------*/
FoamFile
{
    version     2.0;
    format      ascii;
    class       dictionary;
    location    "system";
    object      controlDict;
}
// * * * * * * * * * * * * * * * * * * * * * * * * * * * * * * * * * * * * * //

application     rhoPimpleFoam;

startFrom       latestTime;

startTime       0;

stopAt          endTime;

endTime         1000;

deltaT          0.01;

adjustTimeStep  yes;

maxCo           1.0;

writeControl    adjustableRunTime;

writeInterval   100.0;

purgeWrite      1;

writeFormat     ascii;

writePrecision  6;

timeFormat      general;

timePrecision   6;

runTimeModifiable true;

functions
{
    fieldAverage
    {
        type fieldAverage;
        libs ("libfieldFunctionObjects.so");
        fields
        (
            rho
            {
                mean on;
                base time;
            }

            U
            {
                mean on;
                base time;
            }

            p
            {
                mean on;
                base time;
            }

            T
            {
              mean on;
              base time;
            }
        );
        writeControl writeTime;
        writeInterval 1;
    }
}


// ************************************************************************* //
